Version 4
SHEET 1 1616 680
WIRE 128 -960 -112 -960
WIRE -112 -864 -112 -960
WIRE -96 -864 -112 -864
WIRE 64 -848 -32 -848
WIRE 128 -848 128 -960
WIRE 128 -848 64 -848
WIRE -256 -832 -256 -864
WIRE -256 -832 -368 -832
WIRE -96 -832 -256 -832
WIRE -256 -800 -256 -832
WIRE -368 -784 -368 -832
WIRE 224 -320 128 -320
WIRE 448 -320 288 -320
WIRE 448 -192 448 -320
WIRE 448 -192 304 -192
WIRE 1104 -160 1056 -160
WIRE 1232 -160 1168 -160
WIRE 128 -96 128 -320
WIRE 224 -96 128 -96
WIRE 448 -96 448 -192
WIRE 448 -96 304 -96
WIRE 1056 -64 1056 -160
WIRE 1104 -64 1056 -64
WIRE 1232 -64 1232 -160
WIRE 1232 -64 1184 -64
WIRE -464 32 -528 32
WIRE -320 32 -464 32
WIRE -208 32 -256 32
WIRE 0 32 -128 32
WIRE 128 32 128 -96
WIRE 128 32 0 32
WIRE -528 64 -528 32
WIRE 0 64 0 32
WIRE 1056 64 1056 -64
WIRE 1088 64 1056 64
WIRE 128 80 128 32
WIRE 192 80 128 80
WIRE 1232 80 1232 -64
WIRE 1232 80 1152 80
WIRE 1248 80 1232 80
WIRE 1328 80 1312 80
WIRE 1440 80 1408 80
WIRE 1456 80 1440 80
WIRE 368 96 256 96
WIRE 448 96 448 -96
WIRE 448 96 368 96
WIRE 992 96 448 96
WIRE 1088 96 992 96
WIRE 192 112 128 112
WIRE 992 128 992 96
WIRE 1440 128 1440 80
WIRE -528 160 -528 144
WIRE -464 160 -528 160
WIRE -320 160 -464 160
WIRE -208 160 -256 160
WIRE 0 160 0 128
WIRE 0 160 -128 160
WIRE 128 160 128 112
WIRE 128 160 0 160
WIRE 128 192 128 160
WIRE 384 192 128 192
WIRE 128 224 128 192
WIRE 384 240 384 192
FLAG -496 -720 0
FLAG -496 -800 +5V
FLAG 224 64 +5V
FLAG 368 96 OUT_DIF
FLAG -464 32 IN-
FLAG -464 160 IN+
FLAG -64 -816 0
FLAG -64 -880 +5V
FLAG -256 -944 +5V
FLAG -256 -720 0
FLAG 64 -848 Vbias
FLAG -368 -720 0
FLAG 224 128 0
FLAG 128 304 Vbias
FLAG 1120 48 +5V
FLAG 1120 112 0
FLAG 288 304 Vbias
FLAG 1456 80 OUT_AUDIO
FLAG 992 208 Vbias
FLAG 1440 208 0
FLAG 384 304 Vbias
SYMBOL res -112 16 R90
WINDOW 0 0 56 VBottom 2
WINDOW 3 32 56 VTop 2
SYMATTR InstName R1
SYMATTR Value {R1_dif}
SYMBOL res -112 144 R90
WINDOW 0 0 56 VBottom 2
WINDOW 3 32 56 VTop 2
SYMATTR InstName R2
SYMATTR Value {R1_dif}
SYMBOL res 144 320 R180
WINDOW 0 36 76 Left 2
WINDOW 3 36 40 Left 2
SYMATTR InstName R3
SYMATTR Value {R2_dif}
SYMBOL res 208 -80 R270
WINDOW 0 32 56 VTop 2
WINDOW 3 0 56 VBottom 2
SYMATTR InstName R4
SYMATTR Value {R2_dif}
SYMBOL voltage -528 160 R180
WINDOW 123 24 124 Left 2
WINDOW 39 0 0 Left 0
SYMATTR Value2 AC 1
SYMATTR InstName V1
SYMATTR Value SINE(0 5 100)
SYMBOL voltage -496 -816 R0
WINDOW 123 0 0 Left 0
WINDOW 39 0 0 Left 0
SYMATTR InstName V2
SYMATTR Value +5V
SYMBOL OpAmps\\opamp2 224 32 R0
SYMATTR InstName U1
SYMATTR Value TL074
SYMBOL OpAmps\\opamp2 -64 -912 R0
SYMATTR InstName U2
SYMATTR Value TL074
SYMBOL res -272 -960 R0
SYMATTR InstName R5
SYMATTR Value {Rbias}
SYMBOL res -272 -816 R0
SYMATTR InstName R6
SYMATTR Value {Rbias}
SYMBOL cap -384 -784 R0
SYMATTR InstName C1
SYMATTR Value 100n
SYMBOL cap -256 16 R90
WINDOW 0 0 32 VBottom 2
WINDOW 3 32 32 VTop 2
SYMATTR InstName C2
SYMATTR Value {Cin}
SYMBOL cap -256 144 R90
WINDOW 0 0 32 VBottom 2
WINDOW 3 32 32 VTop 2
SYMATTR InstName C3
SYMATTR Value {Cin}
SYMBOL OpAmps\\opamp2 1120 16 R0
SYMATTR InstName U3
SYMATTR Value TL074
SYMBOL res 208 -176 R270
WINDOW 0 32 56 VTop 2
WINDOW 3 0 56 VBottom 2
SYMATTR InstName R9
SYMATTR Value {R3_dif}
SYMBOL res 304 320 R180
WINDOW 0 36 76 Left 2
WINDOW 3 36 40 Left 2
SYMATTR InstName R10
SYMATTR Value {R3_dif}
SYMBOL res 1424 64 R90
WINDOW 0 0 56 VBottom 2
WINDOW 3 32 56 VTop 2
SYMATTR InstName R11
SYMATTR Value 100
SYMBOL res 976 112 R0
SYMATTR InstName R7
SYMATTR Value 12k
SYMBOL cap 1312 64 R90
WINDOW 0 0 32 VBottom 2
WINDOW 3 32 32 VTop 2
SYMATTR InstName C4
SYMATTR Value 100µ
SYMBOL res 1424 112 R0
SYMATTR InstName R8
SYMATTR Value 10k
SYMBOL cap -16 64 R0
SYMATTR InstName C5
SYMATTR Value 2p
SYMBOL cap 288 -336 R90
WINDOW 0 0 32 VBottom 2
WINDOW 3 32 32 VTop 2
SYMATTR InstName C6
SYMATTR Value {Cp}
SYMBOL cap 368 240 R0
SYMATTR InstName C7
SYMATTR Value {Cp}
SYMBOL res 1200 -80 R90
WINDOW 0 0 56 VBottom 2
WINDOW 3 32 56 VTop 2
SYMATTR InstName R12
SYMATTR Value 12k
SYMBOL cap 1168 -176 R90
WINDOW 0 0 32 VBottom 2
WINDOW 3 32 32 VTop 2
SYMATTR InstName C8
SYMATTR Value {Cp}
TEXT -584 -176 Left 2 !.param R1_dif=1Meg R2_dif=100k R3_dif=12k\n.param Cin=100n Cp=5p6
TEXT -384 360 Left 2 !.inc TL074.LIB
TEXT -384 328 Left 2 !.ac dec 25 1 1meg
TEXT -584 -256 Left 2 ;Ganancia1 = R2_dif/R1_dif = 1/10=0.1 veces\nGanancia2 = (R2_dif//R3_dif)/R1_dif = 1/93=0.01 veces
TEXT -112 -1008 Left 2 !.param Rbias=12k
TEXT -368 -1080 Left 4 ;Fuente de alimentación
TEXT -256 -432 Left 4 ;Circuito de entrada + Ganancia
TEXT 984 -264 Left 4 ;Salida para Microfono Audio
TEXT -48 0 Left 2 ;Cin TL074
TEXT 976 -1096 Left 4 ;Salida para ADC SMT32
